REMARK  11 active torsions:
REMARK  status: ('A' for Active; 'I' for Inactive)
REMARK    1  A    between atoms: PA_1  and  O3_23 
REMARK    2  A    between atoms: PA_1  and  O5B_4 
REMARK    3  A    between atoms: O5B_4  and  C5B_5 
REMARK    4  A    between atoms: C5B_5  and  C4B_6 
REMARK    5  A    between atoms: C1B_12  and  N9A_13 
REMARK    6  A    between atoms: O3_23  and  PN_24 
REMARK    7  A    between atoms: PN_24  and  O5D_27 
REMARK    8  A    between atoms: O5D_27  and  C5D_28 
REMARK    9  A    between atoms: C5D_28  and  C4D_29 
REMARK   10  A    between atoms: C1D_35  and  N1N_36 
REMARK   11  A    between atoms: C3N_38  and  C7N_39 
ROOT
HETATM    1  PA  NAD A 800      15.739   8.763   2.604  1.00 22.19     0.418 P 
HETATM    2  O1A NAD A 800      16.796   8.938   3.662  1.00 21.77    -0.624 OA
HETATM    3  O2A NAD A 800      15.446   9.921   1.678  1.00 23.03    -0.624 OA
ENDROOT
BRANCH   1   4
HETATM    4  O3  NAD A 800      14.324   8.367   3.264  1.00 21.61    -0.180 OA
BRANCH   4   5
HETATM    5  PN  NAD A 800      14.119   7.394   4.542  1.00 21.86     0.418 P 
HETATM    6  O1N NAD A 800      14.198   8.179   5.828  1.00 22.20    -0.624 OA
HETATM    7  O2N NAD A 800      14.906   6.132   4.359  1.00 21.71    -0.624 OA
BRANCH   5   8
HETATM    8  O5D NAD A 800      12.588   7.004   4.337  1.00 20.39    -0.268 OA
BRANCH   8   9
HETATM    9  C5D NAD A 800      12.083   6.497   3.104  1.00 18.52     0.187 C 
BRANCH   9  10
HETATM   10  C4D NAD A 800      10.611   6.843   3.047  1.00 19.31     0.181 C 
HETATM   11  C3D NAD A 800      10.374   8.326   3.279  1.00 19.22     0.216 C 
HETATM   12  C2D NAD A 800       8.985   8.361   3.876  1.00 19.90     0.234 C 
HETATM   13  O3D NAD A 800      10.462   9.082   2.066  1.00 20.89    -0.218 OA
HETATM   14  C1D NAD A 800       8.838   7.004   4.567  1.00 19.32     0.239 C 
HETATM   15  O2D NAD A 800       8.057   8.427   2.789  1.00 21.76    -0.216 OA
HETATM   16  O4D NAD A 800       9.944   6.192   4.130  1.00 18.92    -0.331 OA
BRANCH  14  17
HETATM   17  N1N NAD A 800       8.827   7.056   6.046  1.00 19.68    -0.301 N 
HETATM   18  C2N NAD A 800       7.835   6.432   6.714  1.00 20.26     0.083 A 
HETATM   19  C3N NAD A 800       7.790   6.444   8.112  1.00 20.12     0.077 A 
HETATM   20  C4N NAD A 800       8.782   7.117   8.818  1.00 20.18     0.008 A 
HETATM   21  C5N NAD A 800       9.805   7.745   8.111  1.00 20.70     0.019 A 
HETATM   22  C6N NAD A 800       9.804   7.697   6.719  1.00 19.11     0.078 A 
BRANCH  19  23
HETATM   23  C7N NAD A 800       6.680   5.741   8.845  1.00 21.17     0.298 C 
HETATM   24  O7N NAD A 800       6.227   6.209   9.873  1.00 22.56    -0.264 OA
HETATM   25  N7N NAD A 800       6.198   4.601   8.347  1.00 22.66    -0.102 N 
ENDBRANCH  19  23
ENDBRANCH  14  17
ENDBRANCH   9  10
ENDBRANCH   8   9
ENDBRANCH   5   8
ENDBRANCH   4   5
ENDBRANCH   1   4
BRANCH   1  26
HETATM   26  O5B NAD A 800      16.048   7.448   1.749  1.00 22.91    -0.268 OA
BRANCH  26  27
HETATM   27  C5B NAD A 800      15.298   7.149   0.580  1.00 23.62     0.187 C 
BRANCH  27  28
HETATM   28  C4B NAD A 800      16.209   6.391  -0.376  1.00 24.29     0.181 C 
HETATM   29  C3B NAD A 800      17.242   7.290  -1.057  1.00 24.39     0.216 C 
HETATM   30  C2B NAD A 800      16.946   7.150  -2.533  1.00 24.98     0.234 C 
HETATM   31  O3B NAD A 800      18.558   6.806  -0.763  1.00 25.03    -0.218 OA
HETATM   32  C1B NAD A 800      16.198   5.825  -2.590  1.00 24.12     0.241 C 
HETATM   33  O2B NAD A 800      18.129   7.110  -3.347  1.00 23.48    -0.216 OA
HETATM   34  O4B NAD A 800      15.418   5.798  -1.403  1.00 24.04    -0.331 OA
BRANCH  32  35
HETATM   35  N9A NAD A 800      15.396   5.649  -3.827  1.00 24.40    -0.270 N 
HETATM   36  C4A NAD A 800      15.277   4.482  -4.456  1.00 23.88     0.170 A 
HETATM   37  C5A NAD A 800      14.480   4.684  -5.567  1.00 23.96     0.155 A 
HETATM   38  N3A NAD A 800      15.772   3.246  -4.188  1.00 24.33    -0.205 NA
HETATM   39  N7A NAD A 800      14.126   5.987  -5.586  1.00 23.16    -0.219 NA
HETATM   40  C6A NAD A 800      14.213   3.600  -6.390  1.00 24.37     0.206 A 
HETATM   41  C8A NAD A 800      14.703   6.580  -4.512  1.00 24.50     0.182 A 
HETATM   42  N6A NAD A 800      13.435   3.742  -7.488  1.00 25.11    -0.125 N 
HETATM   43  N1A NAD A 800      14.728   2.390  -6.081  1.00 25.75    -0.202 NA
HETATM   44  C2A NAD A 800      15.498   2.217  -4.999  1.00 25.00     0.202 A 
ENDBRANCH  32  35
ENDBRANCH  27  28
ENDBRANCH  26  27
ENDBRANCH   1  26
TORSDOF 11
