REMARK  15 active torsions:
REMARK  status: ('A' for Active; 'I' for Inactive)
REMARK    1  A    between atoms: PA_1  and  O3_17 
REMARK    2  A    between atoms: PA_1  and  O5B_32 
REMARK    3  A    between atoms: PN_2  and  O3_17 
REMARK    4  A    between atoms: PN_2  and  O5D_33 
REMARK    5  A    between atoms: C1B_5  and  N9A_44 
REMARK    6  A    between atoms: C1D_6  and  N1N_8 
REMARK    7  A    between atoms: O2B_11  and  C2B_12 
REMARK    8  A    between atoms: C2D_13  and  O2D_14 
REMARK    9  A    between atoms: C3B_19  and  O3B_20 
REMARK   10  A    between atoms: O3D_21  and  C3D_22 
REMARK   11  A    between atoms: C3N_23  and  C7N_40 
REMARK   12  A    between atoms: C4B_25  and  C5B_31 
REMARK   13  A    between atoms: C4D_27  and  C5D_34 
REMARK   14  A    between atoms: C5B_31  and  O5B_32 
REMARK   15  A    between atoms: O5D_33  and  C5D_34 
REMARK       I    between atoms: C7N_40  and  N7N_42 
ROOT
HETATM    1  PA  NAD A 800      15.739   8.763   2.604  1.00 22.19     0.417 P 
HETATM    2  O2A NAD A 800      16.796   8.938   3.662  1.00 21.77    -0.624 OA
HETATM    3  O1A NAD A 800      15.446   9.921   1.678  1.00 23.03    -0.624 OA
ENDROOT
BRANCH   1   4
HETATM    4  O3  NAD A 800      14.324   8.367   3.264  1.00 21.61    -0.180 OA
BRANCH   4   5
HETATM    5  PN  NAD A 800      14.119   7.394   4.542  1.00 21.86     0.417 P 
HETATM    6  O1N NAD A 800      14.198   8.179   5.828  1.00 22.20    -0.624 OA
HETATM    7  O2N NAD A 800      14.906   6.132   4.359  1.00 21.71    -0.624 OA
BRANCH   5   8
HETATM    8  O5D NAD A 800      12.588   7.004   4.337  1.00 20.39    -0.287 OA
BRANCH   8   9
HETATM    9  C5D NAD A 800      12.083   6.497   3.104  1.00 18.52     0.216 C 
BRANCH   9  10
HETATM   10  C4D NAD A 800      10.611   6.843   3.047  1.00 19.31     0.180 C 
HETATM   11  C3D NAD A 800      10.374   8.326   3.279  1.00 19.22     0.182 C 
HETATM   12  C2D NAD A 800       8.985   8.361   3.876  1.00 19.90     0.198 C 
HETATM   13  C1D NAD A 800       8.838   7.004   4.567  1.00 19.32     0.259 C 
HETATM   14  O4D NAD A 800       9.944   6.192   4.130  1.00 18.92    -0.353 OA
BRANCH  11  15
HETATM   15  O3D NAD A 800      10.462   9.082   2.066  1.00 20.89    -0.390 OA
HETATM   16  HO3 NAD A 800      11.357   9.033   1.722  1.00  0.00     0.210 HD
ENDBRANCH  11  15
BRANCH  12  17
HETATM   17  O2D NAD A 800       8.057   8.427   2.789  1.00 21.76    -0.388 OA
HETATM   18  HO2 NAD A 800       8.140   9.275   2.347  1.00  0.00     0.210 HD
ENDBRANCH  12  17
BRANCH  13  19
HETATM   19  N1N NAD A 800       8.827   7.056   6.046  1.00 19.68    -0.336 N 
HETATM   20  C2N NAD A 800       7.835   6.432   6.714  1.00 20.26     0.110 A 
HETATM   21  C3N NAD A 800       7.790   6.444   8.112  1.00 20.12     0.047 A 
HETATM   22  C4N NAD A 800       8.782   7.117   8.818  1.00 20.18     0.020 A 
HETATM   23  C5N NAD A 800       9.805   7.745   8.111  1.00 20.70     0.018 A 
HETATM   24  C6N NAD A 800       9.804   7.697   6.719  1.00 19.11     0.093 A 
BRANCH  21  25
HETATM   25  C7N NAD A 800       6.680   5.741   8.845  1.00 21.17     0.250 C 
HETATM   26  O7N NAD A 800       6.227   6.209   9.873  1.00 22.56    -0.268 OA
HETATM   27  N7N NAD A 800       6.198   4.601   8.347  1.00 22.66    -0.366 N 
HETATM   28 1H7N NAD A 800       5.453   4.116   8.826  1.00  0.00     0.159 HD
HETATM   29 2H7N NAD A 800       6.578   4.223   7.491  1.00  0.00     0.159 HD
ENDBRANCH  21  25
ENDBRANCH  13  19
ENDBRANCH   9  10
ENDBRANCH   8   9
ENDBRANCH   5   8
ENDBRANCH   4   5
ENDBRANCH   1   4
BRANCH   1  30
HETATM   30  O5B NAD A 800      16.048   7.448   1.749  1.00 22.91    -0.287 OA
BRANCH  30  31
HETATM   31  C5B NAD A 800      15.298   7.149   0.580  1.00 23.62     0.216 C 
BRANCH  31  32
HETATM   32  C4B NAD A 800      16.209   6.391  -0.376  1.00 24.29     0.180 C 
HETATM   33  C3B NAD A 800      17.242   7.290  -1.057  1.00 24.39     0.182 C 
HETATM   34  C2B NAD A 800      16.946   7.150  -2.533  1.00 24.98     0.198 C 
HETATM   35  C1B NAD A 800      16.198   5.825  -2.590  1.00 24.12     0.262 C 
HETATM   36  O4B NAD A 800      15.418   5.798  -1.403  1.00 24.04    -0.353 OA
BRANCH  33  37
HETATM   37  O3B NAD A 800      18.558   6.806  -0.763  1.00 25.03    -0.390 OA
HETATM   38  HO3 NAD A 800      18.732   6.901   0.176  1.00  0.00     0.210 HD
ENDBRANCH  33  37
BRANCH  34  39
HETATM   39  O2B NAD A 800      18.129   7.110  -3.347  1.00 23.48    -0.388 OA
HETATM   40  HO2 NAD A 800      18.582   7.955  -3.295  1.00  0.00     0.210 HD
ENDBRANCH  34  39
BRANCH  35  41
HETATM   41  N9A NAD A 800      15.396   5.649  -3.827  1.00 24.40    -0.294 N 
HETATM   42  C4A NAD A 800      15.277   4.482  -4.456  1.00 23.88     0.167 A 
HETATM   43  N3A NAD A 800      15.772   3.246  -4.188  1.00 24.33    -0.222 NA
HETATM   44  C5A NAD A 800      14.480   4.684  -5.567  1.00 23.96     0.149 A 
HETATM   45  C2A NAD A 800      15.498   2.217  -4.999  1.00 25.00     0.237 A 
HETATM   46  N1A NAD A 800      14.728   2.390  -6.081  1.00 25.75    -0.222 NA
HETATM   47  C6A NAD A 800      14.213   3.600  -6.390  1.00 24.37     0.155 A 
HETATM   48  N6A NAD A 800      13.435   3.742  -7.488  1.00 25.11    -0.382 N 
HETATM   49 1H6A NAD A 800      13.049   4.646  -7.720  1.00  0.00     0.157 HD
HETATM   50 2H6A NAD A 800      13.240   2.944  -8.075  1.00  0.00     0.157 HD
HETATM   51  N7A NAD A 800      14.126   5.987  -5.586  1.00 23.16    -0.236 NA
HETATM   52  C8A NAD A 800      14.703   6.580  -4.512  1.00 24.50     0.214 A 
ENDBRANCH  35  41
ENDBRANCH  31  32
ENDBRANCH  30  31
ENDBRANCH   1  30
TORSDOF 15
